Version 4
SHEET 1 4180 1588
WIRE 2944 -272 2704 -272
WIRE 400 -256 240 -256
WIRE 640 -256 464 -256
WIRE 880 -256 704 -256
WIRE 1024 -256 944 -256
WIRE 1248 -256 1088 -256
WIRE 2704 -160 2704 -272
WIRE 2768 -160 2704 -160
WIRE 2944 -144 2944 -272
WIRE 2944 -144 2832 -144
WIRE 3136 -144 2944 -144
WIRE 3280 -144 3136 -144
WIRE 240 -128 240 -256
WIRE 400 -128 240 -128
WIRE 624 -128 480 -128
WIRE 864 -128 704 -128
WIRE 1088 -128 944 -128
WIRE 1248 -128 1248 -256
WIRE 1248 -128 1168 -128
WIRE 1376 -128 1248 -128
WIRE 1488 -128 1376 -128
WIRE 1584 -128 1488 -128
WIRE 1744 -128 1584 -128
WIRE 2768 -128 1744 -128
WIRE 2944 -112 2944 -144
WIRE 1248 -64 1248 -128
WIRE 3280 -16 3280 -144
WIRE 2944 0 2944 -48
WIRE 1376 16 1376 -128
WIRE 1488 16 1488 -128
WIRE 1584 16 1584 -128
WIRE 1744 16 1744 -128
WIRE 1248 96 1248 16
WIRE 240 144 240 -128
WIRE 624 144 240 144
WIRE 624 240 624 144
WIRE 1744 240 1744 80
WIRE 3024 240 2912 240
WIRE 3280 240 3280 64
WIRE 3280 240 3104 240
WIRE 3568 240 3280 240
WIRE 4048 256 3632 256
WIRE 240 272 240 144
WIRE 1376 272 1376 80
WIRE 1488 272 1488 80
WIRE 1584 272 1584 80
WIRE 3280 272 3280 240
WIRE 3568 272 3456 272
WIRE 1248 288 1248 176
WIRE 1248 288 1200 288
WIRE 3280 352 3280 336
WIRE 1248 368 1248 288
WIRE 3456 400 3456 272
WIRE 3456 400 3280 400
WIRE 3776 400 3456 400
WIRE 4048 400 4048 256
WIRE 4048 400 3856 400
WIRE 624 416 624 320
WIRE 2128 432 2096 432
WIRE 2272 432 2192 432
WIRE 2416 432 2352 432
WIRE 3456 432 3456 400
WIRE 4048 432 4048 400
WIRE 2416 480 2416 432
WIRE 1376 512 1376 272
WIRE 1488 512 1488 272
WIRE 1584 512 1584 272
WIRE 1744 512 1744 240
WIRE 3456 544 3456 496
WIRE 4048 544 4048 496
WIRE 1248 560 1248 448
WIRE 2960 560 2720 560
WIRE 3280 560 3280 400
WIRE 2416 592 2416 560
WIRE 2720 688 2720 560
WIRE 2736 688 2720 688
WIRE 2960 704 2960 560
WIRE 2960 704 2800 704
WIRE 3232 704 2960 704
WIRE 3280 704 3280 640
WIRE 3280 704 3232 704
WIRE 240 720 240 352
WIRE 352 720 240 720
WIRE 624 720 432 720
WIRE 864 720 704 720
WIRE 1088 720 944 720
WIRE 1248 720 1248 640
WIRE 1248 720 1168 720
WIRE 1376 720 1376 576
WIRE 1376 720 1248 720
WIRE 1488 720 1488 576
WIRE 1488 720 1376 720
WIRE 1584 720 1584 576
WIRE 1584 720 1488 720
WIRE 1744 720 1744 576
WIRE 1744 720 1584 720
WIRE 2736 720 1744 720
WIRE 2960 736 2960 704
WIRE 2960 848 2960 800
WIRE 240 864 240 720
WIRE 400 864 240 864
WIRE 640 864 464 864
WIRE 880 864 704 864
WIRE 1088 864 944 864
WIRE 1248 864 1248 720
WIRE 1248 864 1152 864
WIRE 3216 1088 3216 1040
FLAG -80 -176 0
FLAG -80 -256 2.5V
FLAG 96 -176 0
FLAG 96 -256 -2.5V
FLAG 1200 288 0
FLAG 1584 272 0
FLAG 1744 240 0
FLAG 2800 -176 5V
FLAG 2800 -112 -5V
FLAG 624 416 0
FLAG 1488 272 0
FLAG -80 16 0
FLAG -80 -64 9V
FLAG 96 16 0
FLAG 96 -64 -9V
FLAG 2912 240 0
FLAG -80 192 0
FLAG -80 112 5V
FLAG 96 192 0
FLAG 2768 672 5V
FLAG 2768 736 -5V
FLAG 3600 288 5V
FLAG 3600 224 -5V
FLAG 96 112 -5V
FLAG 3136 -144 diff+
FLAG 3232 704 diff-
FLAG 3216 1168 0
FLAG 3216 960 0
FLAG 3280 352 0
FLAG 3456 544 0
FLAG 4048 544 0
FLAG 1376 272 0
FLAG 2960 848 0
FLAG 2944 0 0
FLAG 2416 592 0
FLAG 2096 432 0
SYMBOL voltage -80 -272 R0
SYMATTR InstName V1
SYMATTR Value 2.75
SYMBOL voltage 96 -272 R0
SYMATTR InstName V2
SYMATTR Value -2.75
SYMBOL voltage 240 256 R0
WINDOW 123 0 0 Left 0
WINDOW 39 0 0 Left 0
SYMATTR InstName V3
SYMATTR Value SINE(0 200 50Meg)
SYMBOL res 1232 656 M180
WINDOW 0 36 76 Left 2
WINDOW 3 36 40 Left 2
SYMATTR InstName R10
SYMATTR Value 10k
SYMBOL cap 464 -272 R90
WINDOW 0 0 32 VBottom 2
WINDOW 3 32 32 VTop 2
SYMATTR InstName C6
SYMATTR Value 10p
SYMBOL cap 704 -272 R90
WINDOW 0 0 32 VBottom 2
WINDOW 3 32 32 VTop 2
SYMATTR InstName C3
SYMATTR Value 10p
SYMBOL cap 944 -272 R90
WINDOW 0 0 32 VBottom 2
WINDOW 3 32 32 VTop 2
SYMATTR InstName C4
SYMATTR Value 10p
SYMBOL cap 1088 -272 R90
WINDOW 0 0 32 VBottom 2
WINDOW 3 32 32 VTop 2
SYMATTR InstName C5
SYMATTR Value 10p
SYMBOL cap 464 848 R90
WINDOW 0 0 32 VBottom 2
WINDOW 3 32 32 VTop 2
SYMATTR InstName C9
SYMATTR Value 10p
SYMBOL cap 704 848 R90
WINDOW 0 0 32 VBottom 2
WINDOW 3 32 32 VTop 2
SYMATTR InstName C10
SYMATTR Value 10p
SYMBOL cap 944 848 R90
WINDOW 0 0 32 VBottom 2
WINDOW 3 32 32 VTop 2
SYMATTR InstName C11
SYMATTR Value 10p
SYMBOL cap 1152 848 R90
WINDOW 0 0 32 VBottom 2
WINDOW 3 32 32 VTop 2
SYMATTR InstName C12
SYMATTR Value 10p
SYMBOL cap 1568 16 R0
SYMATTR InstName C13
SYMATTR Value 120p
SYMBOL cap 1600 576 R180
WINDOW 0 24 56 Left 2
WINDOW 3 24 8 Left 2
SYMATTR InstName C14
SYMATTR Value 120p
SYMBOL cap 1728 16 R0
SYMATTR InstName C15
SYMATTR Value 47p
SYMBOL cap 1760 576 R180
WINDOW 0 24 56 Left 2
WINDOW 3 24 8 Left 2
SYMATTR InstName C16
SYMATTR Value 47p
SYMBOL res 1232 32 M180
WINDOW 0 36 76 Left 2
WINDOW 3 36 40 Left 2
SYMATTR InstName R5
SYMATTR Value 10k
SYMBOL res 3264 656 M180
WINDOW 0 36 76 Left 2
WINDOW 3 36 40 Left 2
SYMATTR InstName R13
SYMATTR Value {10 * gain * (100 + tolerance) / 100}
SYMBOL res 3008 224 M90
WINDOW 0 0 56 VBottom 2
WINDOW 3 32 56 VTop 2
SYMATTR InstName R16
SYMATTR Value {2000 * (100 - tolerance)/100}
SYMBOL voltage 624 224 R0
WINDOW 123 0 0 Left 0
WINDOW 39 0 0 Left 0
SYMATTR InstName V5
SYMATTR Value SINE(400 100 10Meg)
SYMBOL cap 1472 16 R0
SYMATTR InstName C7
SYMATTR Value 470p
SYMBOL cap 1504 576 R180
WINDOW 0 24 56 Left 2
WINDOW 3 24 8 Left 2
SYMATTR InstName C8
SYMATTR Value 470p
SYMBOL voltage -80 -80 R0
SYMATTR InstName V4
SYMATTR Value 9
SYMBOL voltage 96 -80 R0
SYMATTR InstName V6
SYMATTR Value -9
SYMBOL voltage -80 96 R0
SYMATTR InstName V7
SYMATTR Value {five}
SYMBOL voltage 96 208 R180
WINDOW 123 0 0 Left 0
WINDOW 39 0 0 Left 0
SYMATTR InstName V8
SYMATTR Value {five}
SYMBOL OpAmps\\AD8038 2800 -208 R0
SYMATTR InstName U3
SYMBOL OpAmps\\AD8038 2768 640 R0
SYMATTR InstName U2
SYMBOL ZZZ\\OpAmp\\AD8009an 3600 256 M180
SYMATTR InstName U4
SYMBOL bv 3216 1072 R0
SYMATTR InstName B1
SYMATTR Value V=20*(V(diff+) - V(diff-))
SYMBOL res 3200 944 R0
SYMATTR InstName R17
SYMATTR Value 100k
SYMBOL cap 3264 272 R0
SYMATTR InstName C18
SYMATTR Value {par_cap}
SYMBOL res 1232 80 R0
SYMATTR InstName R11
SYMATTR Value 25
SYMBOL res 1232 352 R0
SYMATTR InstName R12
SYMATTR Value 25
SYMBOL cap 1360 16 R0
SYMATTR InstName C2
SYMATTR Value 360p
SYMBOL cap 1392 576 R180
WINDOW 0 24 56 Left 2
WINDOW 3 24 8 Left 2
SYMATTR InstName C21
SYMATTR Value 360p
SYMBOL res 3760 384 M90
WINDOW 0 0 56 VBottom 2
WINDOW 3 32 56 VTop 2
SYMATTR InstName R15
SYMATTR Value {2000 * (100 - tolerance)/100}
SYMBOL res 3264 80 M180
WINDOW 0 36 76 Left 2
WINDOW 3 36 40 Left 2
SYMATTR InstName R18
SYMATTR Value {10 * gain * (100 + tolerance) / 100}
SYMBOL cap 4032 432 R0
SYMATTR InstName C17
SYMATTR Value {par_cap}
SYMBOL cap 3440 432 R0
SYMATTR InstName C1
SYMATTR Value {par_cap}
SYMBOL cap 2944 736 R0
SYMATTR InstName C19
SYMATTR Value {par_cap}
SYMBOL cap 2928 -112 R0
SYMATTR InstName C20
SYMATTR Value {par_cap}
SYMBOL res 448 704 R90
WINDOW 0 0 56 VBottom 2
WINDOW 3 32 56 VTop 2
SYMATTR InstName R14
SYMATTR Value 1Meg
SYMBOL res 720 704 R90
WINDOW 0 0 56 VBottom 2
WINDOW 3 32 56 VTop 2
SYMATTR InstName R1
SYMATTR Value 1Meg
SYMBOL res 960 704 R90
WINDOW 0 0 56 VBottom 2
WINDOW 3 32 56 VTop 2
SYMATTR InstName R2
SYMATTR Value 1Meg
SYMBOL res 1184 704 R90
WINDOW 0 0 56 VBottom 2
WINDOW 3 32 56 VTop 2
SYMATTR InstName R3
SYMATTR Value 1Meg
SYMBOL res 496 -144 R90
WINDOW 0 0 56 VBottom 2
WINDOW 3 32 56 VTop 2
SYMATTR InstName R4
SYMATTR Value 1Meg
SYMBOL res 720 -144 R90
WINDOW 0 0 56 VBottom 2
WINDOW 3 32 56 VTop 2
SYMATTR InstName R6
SYMATTR Value 1Meg
SYMBOL res 960 -144 R90
WINDOW 0 0 56 VBottom 2
WINDOW 3 32 56 VTop 2
SYMATTR InstName R7
SYMATTR Value 1Meg
SYMBOL res 1184 -144 R90
WINDOW 0 0 56 VBottom 2
WINDOW 3 32 56 VTop 2
SYMATTR InstName R8
SYMATTR Value 1Meg
SYMBOL AutoGenerated\\SMV1255 2160 432 R0
SYMATTR InstName U1
SYMBOL voltage 2416 464 R0
WINDOW 123 0 0 Left 0
WINDOW 39 0 0 Left 0
SYMATTR InstName V9
SYMATTR Value 4
SYMBOL res 2368 416 R90
WINDOW 0 0 56 VBottom 2
WINDOW 3 32 56 VTop 2
SYMATTR InstName R9
SYMATTR Value 1k
TEXT -240 312 Left 2 !.tran 0 10m 0 1n
TEXT 1040 -40 Left 2 ;1 / 400
TEXT -24 264 Left 2 !.param five=5
TEXT 1320 -296 Left 2 ;82.5 dB CMRR at 100 kHz
TEXT 3888 744 Left 2 !.param tolerance=-1
TEXT 3896 784 Left 2 !.param par_cap=10p
TEXT 3184 800 Left 2 !.param res_tol=-0.1
TEXT 3752 688 Left 2 !.param gain=100
TEXT 2152 280 Left 2 !.lib SMV1255-079LF.lib
