Version 4
SHEET 1 4180 1640
WIRE 480 -96 416 -96
WIRE 656 -96 560 -96
WIRE 752 -96 656 -96
WIRE 880 -96 816 -96
WIRE 928 -96 880 -96
WIRE 1184 -96 992 -96
WIRE 1280 -96 1184 -96
WIRE 416 -48 416 -96
WIRE 1280 -48 1280 -96
WIRE 656 -32 656 -96
WIRE 416 64 416 32
WIRE 656 64 656 32
WIRE 1280 64 1280 32
FLAG -80 -176 0
FLAG -80 -256 2.5V
FLAG 96 -176 0
FLAG 96 -256 -2.5V
FLAG -80 16 0
FLAG -80 -64 9V
FLAG 96 16 0
FLAG 96 -64 -9V
FLAG -80 192 0
FLAG -80 112 5V
FLAG 96 192 0
FLAG 96 112 -5V
FLAG 416 64 0
FLAG 656 64 0
FLAG 1280 64 0
FLAG 880 -96 mid
FLAG 1184 -96 input
SYMBOL voltage -80 -272 R0
SYMATTR InstName V1
SYMATTR Value 2.75
SYMBOL voltage 96 -272 R0
SYMATTR InstName V2
SYMATTR Value -2.75
SYMBOL voltage -80 -80 R0
SYMATTR InstName V4
SYMATTR Value 9
SYMBOL voltage 96 -80 R0
SYMATTR InstName V6
SYMATTR Value -9
SYMBOL voltage -80 96 R0
SYMATTR InstName V7
SYMATTR Value {five}
SYMBOL voltage 96 208 R180
WINDOW 123 0 0 Left 0
WINDOW 39 0 0 Left 0
SYMATTR InstName V8
SYMATTR Value {five}
SYMBOL AutoGenerated\\SMV1255 656 0 R90
SYMATTR InstName U1
SYMBOL voltage 416 -64 M0
WINDOW 123 0 0 Left 0
WINDOW 39 0 0 Left 0
SYMATTR InstName V9
SYMATTR Value {bias}
SYMBOL res 464 -112 M90
WINDOW 0 0 56 VBottom 2
WINDOW 3 32 56 VTop 2
SYMATTR InstName R9
SYMATTR Value 100k
SYMBOL cap 816 -112 R90
WINDOW 0 0 32 VBottom 2
WINDOW 3 32 32 VTop 2
SYMATTR InstName C1
SYMATTR Value 100n
SYMBOL cap 992 -112 R90
WINDOW 0 0 32 VBottom 2
WINDOW 3 32 32 VTop 2
SYMATTR InstName C2
SYMATTR Value 100p
SYMBOL voltage 1280 -64 M0
WINDOW 123 0 0 Left 0
WINDOW 39 0 0 Left 0
SYMATTR InstName V10
SYMATTR Value SINE(0 1 1Meg)
TEXT -240 312 Left 2 !.tran 0 100.26u 100.24u
TEXT -24 264 Left 2 !.param five=5
TEXT 816 168 Left 2 !.lib SMV1255-079LF.lib
TEXT 1472 -72 Left 2 !.step param bias list 0 1 2 3 4 5
