Version 4
SHEET 1 2616 1748
WIRE 1584 -240 1520 -240
WIRE 1744 -240 1584 -240
WIRE 2528 -240 1840 -240
WIRE 1584 -96 1584 -240
WIRE 1648 -96 1584 -96
WIRE 1792 -96 1792 -176
WIRE 1792 -96 1728 -96
WIRE 1888 -96 1792 -96
WIRE 2528 -64 2528 -240
WIRE 1888 -48 1888 -96
WIRE 1792 -32 1792 -96
WIRE 1792 80 1792 32
WIRE 1888 80 1888 32
WIRE 2528 112 2528 16
WIRE -192 128 -352 128
WIRE 112 128 -192 128
WIRE 256 128 112 128
WIRE 672 128 352 128
WIRE 1264 128 1104 128
WIRE 1104 176 1104 128
WIRE 1264 208 1264 128
WIRE 1584 224 1520 224
WIRE 1744 224 1584 224
WIRE 2528 224 1840 224
WIRE 112 304 112 128
WIRE 160 304 112 304
WIRE 304 304 304 192
WIRE 304 304 240 304
WIRE 400 304 304 304
WIRE 672 304 672 128
WIRE 1104 304 1104 256
WIRE 400 352 400 304
WIRE -352 368 -352 128
WIRE 304 368 304 304
WIRE 1584 368 1584 224
WIRE 1648 368 1584 368
WIRE 1792 368 1792 288
WIRE 1792 368 1728 368
WIRE 1888 368 1792 368
WIRE 2528 400 2528 224
WIRE 1888 416 1888 368
WIRE 1792 432 1792 368
WIRE 1104 464 1104 384
WIRE 1184 464 1104 464
WIRE 1264 464 1264 288
WIRE 1264 464 1184 464
WIRE 304 480 304 432
WIRE 400 480 400 432
WIRE 672 480 672 384
WIRE -352 528 -352 448
WIRE 1792 544 1792 496
WIRE 1888 544 1888 496
WIRE 2528 576 2528 480
WIRE -352 704 -352 608
WIRE -352 848 -352 784
WIRE -240 1600 -240 1520
WIRE -240 1728 -240 1680
FLAG 304 480 0
FLAG -352 848 0
FLAG 672 480 0
FLAG 400 480 0
FLAG -240 1728 0
FLAG -240 1520 vee_in
FLAG -192 128 vcc_in
FLAG 1184 464 0
FLAG 1520 224 vcc_in
FLAG 1792 544 0
FLAG 1888 544 0
FLAG 2528 576 0
FLAG 1520 -240 vee_in
FLAG 1792 80 0
FLAG 1888 80 0
FLAG 2528 112 0
SYMBOL res 256 288 R90
WINDOW 0 0 56 VBottom 2
WINDOW 3 32 56 VTop 2
SYMATTR InstName R1
SYMATTR Value 1k
SYMBOL cap 288 368 R0
SYMATTR InstName C1
SYMATTR Value 47µ
SYMBOL voltage -352 512 R0
WINDOW 123 0 0 Left 0
WINDOW 39 0 0 Left 0
SYMATTR InstName V1
SYMATTR Value PULSE(-1 1 0 10u 10u 1n 20u)
SYMBOL voltage -352 688 R0
WINDOW 123 0 0 Left 0
WINDOW 39 0 0 Left 0
SYMATTR InstName V2
SYMATTR Value 9
SYMBOL current 672 304 R0
WINDOW 123 0 0 Left 0
WINDOW 39 0 0 Left 0
SYMATTR InstName I1
SYMATTR Value 30m
SYMBOL voltage -352 352 R0
WINDOW 123 0 0 Left 0
WINDOW 39 0 0 Left 0
SYMATTR InstName V3
SYMATTR Value PULSE(-1 1 0 {t2} {t2} 1n {2*t2})
SYMBOL res 384 336 R0
SYMATTR InstName R2
SYMATTR Value 3.3k
SYMBOL bv -240 1584 R0
SYMATTR InstName B1
SYMATTR Value V=-V(vcc_in)
SYMBOL res 1088 160 R0
SYMATTR InstName R3
SYMATTR Value 1k
SYMBOL res 1088 288 R0
SYMATTR InstName R322
SYMATTR Value 3.3k
SYMBOL voltage 1264 192 R0
WINDOW 123 0 0 Left 0
WINDOW 39 0 0 Left 0
SYMATTR InstName V4
SYMATTR Value 9
SYMBOL bd679 256 192 R270
SYMATTR InstName U2
SYMATTR Value bd679
SYMBOL npn 1744 288 R270
SYMATTR InstName Q1
SYMATTR Value 2N3904
SYMBOL res 1744 352 R90
WINDOW 0 0 56 VBottom 2
WINDOW 3 32 56 VTop 2
SYMATTR InstName R4
SYMATTR Value 1k
SYMBOL cap 1776 432 R0
SYMATTR InstName C2
SYMATTR Value 47µ
SYMBOL res 1872 400 R0
SYMATTR InstName R5
SYMATTR Value 2.2k
SYMBOL current 2528 400 R0
WINDOW 123 0 0 Left 0
WINDOW 39 0 0 Left 0
SYMATTR InstName I2
SYMATTR Value 30m
SYMBOL res 1744 -112 R90
WINDOW 0 0 56 VBottom 2
WINDOW 3 32 56 VTop 2
SYMATTR InstName R6
SYMATTR Value 1k
SYMBOL cap 1776 -32 R0
SYMATTR InstName C3
SYMATTR Value 47µ
SYMBOL res 1872 -64 R0
SYMATTR InstName R7
SYMATTR Value 2.2k
SYMBOL current 2528 -64 R0
WINDOW 123 0 0 Left 0
WINDOW 39 0 0 Left 0
SYMATTR InstName I3
SYMATTR Value -30m
SYMBOL pnp 1744 -176 R270
SYMATTR InstName Q2
SYMATTR Value 2N2905
TEXT -160 520 Left 2 !.tran 1000m
TEXT 544 640 Left 2 !.param t2 = 0.5u
TEXT 856 680 Left 2 !.lib BD679.SP3
