Version 4
SHEET 1 880 868
WIRE 112 128 -352 128
WIRE 272 128 112 128
WIRE 672 128 336 128
WIRE 272 192 272 128
WIRE 336 192 336 128
WIRE 112 304 112 128
WIRE 160 304 112 304
WIRE 304 304 304 256
WIRE 304 304 240 304
WIRE 400 304 304 304
WIRE 672 304 672 128
WIRE 400 352 400 304
WIRE -352 368 -352 128
WIRE 304 368 304 304
WIRE 304 480 304 432
WIRE 400 480 400 432
WIRE 672 480 672 384
WIRE -352 528 -352 448
WIRE -352 704 -352 608
WIRE -352 848 -352 784
FLAG 304 480 0
FLAG -352 848 0
FLAG 672 480 0
FLAG 400 480 0
SYMBOL AutoGenerated\\bd679 304 224 R270
SYMATTR InstName U1
SYMBOL res 256 288 R90
WINDOW 0 0 56 VBottom 2
WINDOW 3 32 56 VTop 2
SYMATTR InstName R1
SYMATTR Value 1k
SYMBOL cap 288 368 R0
SYMATTR InstName C1
SYMATTR Value 47µ
SYMBOL voltage -352 512 R0
WINDOW 123 0 0 Left 0
WINDOW 39 0 0 Left 0
SYMATTR InstName V1
SYMATTR Value PULSE(-1 1 0 10u 10u 1n 20u)
SYMBOL voltage -352 688 R0
WINDOW 123 0 0 Left 0
WINDOW 39 0 0 Left 0
SYMATTR InstName V2
SYMATTR Value 20
SYMBOL current 672 304 R0
WINDOW 123 0 0 Left 0
WINDOW 39 0 0 Left 0
SYMATTR InstName I1
SYMATTR Value 20m
SYMBOL voltage -352 352 R0
WINDOW 123 0 0 Left 0
WINDOW 39 0 0 Left 0
SYMATTR InstName V3
SYMATTR Value PULSE(-1 1 0 {t2} {t2} 1n {2*t2})
SYMBOL res 384 336 R0
SYMATTR InstName R2
SYMATTR Value 12k
TEXT -162 520 Left 2 !.tran 1000m
TEXT 544 640 Left 2 !.param t2 = 0.5u
